[General]
network = OPSNetwork



#simulation control parameters
sim-time-limit = 604800s # 7 days
repeat = 1



# RNG initialization
num-rngs = 6
seed-0-mt = 1000   # left specifically unused for "unknown" RNG uses
seed-1-mt = 2000   # application
seed-2-mt = 3000   # user behaviour model RNG
seed-3-mt = 4000   # forwarding RNG
seed-4-mt = 5000   # link layer RNG
seed-5-mt = 6000   # mobility RNG



# results location
result-dir = results/
output-vector-file = "${resultdir}/${inifile}-${configname}-${runnumber}.vec"
output-scalar-file = "${resultdir}/${inifile}-${configname}-${runnumber}.sca"



# statistic collection
**.vector-recording = true
**.scalar-recording = true
**.statistic-recording = true


[Config Herald-9s-Epidemic-850-nodes-SWIM]

# network parameters
**.numNodes = 850

# application layer (herald)
**.applicationLayer = "KHeraldApp"
**.app.ttl = 259200
**.app.popularityAssignmentPercentage = 25
**.app.dataGenerationInterval = 9s
**.app.dataSizeInBytes = 1000000
**.app.usedRNG = 1

# forwarding layer parameters
**.forwardingLayer = "KEpidemicRoutingLayer"
**.forwarding.maximumCacheSize = 5000000byte
**.forwarding.antiEntropyInterval = 300s
**.forwarding.maximumHopCount = 25
**.forwarding.usedRNG = 3
**.forwarding.useTTL = true

# wireless interface parameters
**.linkLayer = "KWirelessInterface"
**.link.wirelessRange = 30m
**.link.neighbourScanInterval = 1s
**.link.bandwidthBitRate = 100000bps
**.link.wirelessHeaderSize = 16byte
**.link.usedRNG = 4

# INET mobility parameters (SWIM)
**.constraintAreaMinX = 0m
**.constraintAreaMinY = 0m
**.constraintAreaMinZ = 0m
**.constraintAreaMaxX = 1000m
**.constraintAreaMaxY = 1000m
**.constraintAreaMaxZ = 0m
**.updateInterval = 1s
**.mobility.initFromDisplayString = false
**.mobilityType = "SWIMMobility"
**.mobility.noOfLocations = 200
**.mobility.Hosts = 500
**.mobility.popularityDecisionThreshold = 7
**.mobility.returnHomePercentage = 15
**.mobility.neighbourLocationLimit = 200m
**.mobility.speed = 1.5mps
**.mobility.radius = 2m
**.mobility.alpha = 0.5
**.mobility.waitTime = uniform(1200s, 28800s, 5)
**.mobility.usedRNG = 5
